Circuit: * C:\Users\27793\Desktop\LT SPICE\status leds.asc

Direct Newton iteration for .op point succeeded.

Date: Thu May 13 20:52:39 2021
Total elapsed time: 0.595 seconds.

tnom = 27
temp = 27
method = modified trap
totiter = 105
traniter = 88
tranpoints = 45
accept = 45
rejected = 0
matrix size = 16
fillins = 14
solver = Normal
Matrix Compiler1: 1.56 KB object code size
Matrix Compiler2: off  [0.2]/0.4/0.3

